118736856
  -OEChem-04132513253D

 56 59  0     0  0  0  0  0  0999 V2000
    5.6463    2.3501   -1.4717 S   0  0  0  0  0  0  0  0  0  0  0  0
   -5.6468    1.1916    0.2223 O   0  0  0  0  0  0  0  0  0  0  0  0
   -8.1486    0.0379   -0.2646 O   0  0  0  0  0  0  0  0  0  0  0  0
    0.2859   -4.4868    0.1451 O   0  0  0  0  0  0  0  0  0  0  0  0
   -0.1322    0.1762    0.4330 N   0  0  0  0  0  0  0  0  0  0  0  0
    2.2642   -3.2683   -0.0379 N   0  0  0  0  0  0  0  0  0  0  0  0
    5.5046    3.9655    0.5415 N   0  0  0  0  0  0  0  0  0  0  0  0
   -1.5668    0.1293    0.6087 C   0  0  0  0  0  0  0  0  0  0  0  0
   -2.0443    1.4277    1.2639 C   0  0  0  0  0  0  0  0  0  0  0  0
   -2.2405   -0.0945   -0.7474 C   0  0  0  0  0  0  0  0  0  0  0  0
   -4.2380    1.2455    0.0255 C   0  0  0  0  0  0  0  0  0  0  0  0
   -3.5651    1.4681    1.3782 C   0  0  0  0  0  0  0  0  0  0  0  0
   -3.7609   -0.0500   -0.6296 C   0  0  0  0  0  0  0  0  0  0  0  0
    0.6419   -0.9433    0.2804 C   0  0  0  0  0  0  0  0  0  0  0  0
   -6.3502    1.4440   -0.9856 C   0  0  0  0  0  0  0  0  0  0  0  0
    2.1084   -0.8173    0.1049 C   0  0  0  0  0  0  0  0  0  0  0  0
    0.1023   -2.1704    0.2851 C   0  0  0  0  0  0  0  0  0  0  0  0
    2.8932   -1.9806   -0.0508 C   0  0  0  0  0  0  0  0  0  0  0  0
   -7.8402    1.3500   -0.7194 C   0  0  0  0  0  0  0  0  0  0  0  0
    2.7543    0.4352    0.0875 C   0  0  0  0  0  0  0  0  0  0  0  0
    0.8897   -3.4137    0.1247 C   0  0  0  0  0  0  0  0  0  0  0  0
    4.2865   -1.8553   -0.2169 C   0  0  0  0  0  0  0  0  0  0  0  0
    4.1358    0.5399   -0.0785 C   0  0  0  0  0  0  0  0  0  0  0  0
    4.9017   -0.6049   -0.2304 C   0  0  0  0  0  0  0  0  0  0  0  0
    3.0896   -4.4627   -0.2002 C   0  0  0  0  0  0  0  0  0  0  0  0
    4.7671    1.8372   -0.0915 C   0  0  0  0  0  0  0  0  0  0  0  0
   -9.5330   -0.1015    0.0225 C   0  0  0  0  0  0  0  0  0  0  0  0
    4.8013    2.8236    0.8717 C   0  0  0  0  0  0  0  0  0  0  0  0
    5.9939    3.8275   -0.6707 C   0  0  0  0  0  0  0  0  0  0  0  0
   -1.8504   -0.6738    1.3014 H   0  0  0  0  0  0  0  0  0  0  0  0
   -1.7041    2.2932    0.6798 H   0  0  0  0  0  0  0  0  0  0  0  0
   -1.5979    1.5328    2.2604 H   0  0  0  0  0  0  0  0  0  0  0  0
   -1.9507   -1.0512   -1.1942 H   0  0  0  0  0  0  0  0  0  0  0  0
   -1.9139    0.6798   -1.4550 H   0  0  0  0  0  0  0  0  0  0  0  0
   -3.9868    2.0994   -0.6188 H   0  0  0  0  0  0  0  0  0  0  0  0
   -3.8849    2.4299    1.7971 H   0  0  0  0  0  0  0  0  0  0  0  0
   -3.9063    0.7066    2.0917 H   0  0  0  0  0  0  0  0  0  0  0  0
   -4.1874   -0.1699   -1.6306 H   0  0  0  0  0  0  0  0  0  0  0  0
   -4.1168   -0.9113   -0.0494 H   0  0  0  0  0  0  0  0  0  0  0  0
    0.2893    1.0852    0.2932 H   0  0  0  0  0  0  0  0  0  0  0  0
   -6.1072    2.4454   -1.3579 H   0  0  0  0  0  0  0  0  0  0  0  0
   -6.0876    0.7021   -1.7450 H   0  0  0  0  0  0  0  0  0  0  0  0
   -0.9580   -2.3566    0.4141 H   0  0  0  0  0  0  0  0  0  0  0  0
   -8.3993    1.5669   -1.6362 H   0  0  0  0  0  0  0  0  0  0  0  0
   -8.1231    2.0702    0.0572 H   0  0  0  0  0  0  0  0  0  0  0  0
    2.1908    1.3573    0.2054 H   0  0  0  0  0  0  0  0  0  0  0  0
    4.9296   -2.7225   -0.3379 H   0  0  0  0  0  0  0  0  0  0  0  0
    5.9811   -0.5553   -0.3518 H   0  0  0  0  0  0  0  0  0  0  0  0
    3.8159   -4.5199    0.6165 H   0  0  0  0  0  0  0  0  0  0  0  0
    3.5957   -4.4294   -1.1701 H   0  0  0  0  0  0  0  0  0  0  0  0
    2.4820   -5.3719   -0.1714 H   0  0  0  0  0  0  0  0  0  0  0  0
   -9.7128   -1.1252    0.3619 H   0  0  0  0  0  0  0  0  0  0  0  0
  -10.1314    0.0785   -0.8758 H   0  0  0  0  0  0  0  0  0  0  0  0
   -9.8313    0.5872    0.8188 H   0  0  0  0  0  0  0  0  0  0  0  0
    4.3284    2.7651    1.8436 H   0  0  0  0  0  0  0  0  0  0  0  0
    6.5843    4.5999   -1.1441 H   0  0  0  0  0  0  0  0  0  0  0  0
  1 26  1  0  0  0  0
  1 29  1  0  0  0  0
  2 11  1  0  0  0  0
  2 15  1  0  0  0  0
  3 19  1  0  0  0  0
  3 27  1  0  0  0  0
  4 21  2  0  0  0  0
  5  8  1  0  0  0  0
  5 14  1  0  0  0  0
  5 40  1  0  0  0  0
  6 18  1  0  0  0  0
  6 21  1  0  0  0  0
  6 25  1  0  0  0  0
  7 28  1  0  0  0  0
  7 29  2  0  0  0  0
  8  9  1  0  0  0  0
  8 10  1  0  0  0  0
  8 30  1  0  0  0  0
  9 12  1  0  0  0  0
  9 31  1  0  0  0  0
  9 32  1  0  0  0  0
 10 13  1  0  0  0  0
 10 33  1  0  0  0  0
 10 34  1  0  0  0  0
 11 12  1  0  0  0  0
 11 13  1  0  0  0  0
 11 35  1  0  0  0  0
 12 36  1  0  0  0  0
 12 37  1  0  0  0  0
 13 38  1  0  0  0  0
 13 39  1  0  0  0  0
 14 16  1  0  0  0  0
 14 17  2  0  0  0  0
 15 19  1  0  0  0  0
 15 41  1  0  0  0  0
 15 42  1  0  0  0  0
 16 18  2  0  0  0  0
 16 20  1  0  0  0  0
 17 21  1  0  0  0  0
 17 43  1  0  0  0  0
 18 22  1  0  0  0  0
 19 44  1  0  0  0  0
 19 45  1  0  0  0  0
 20 23  2  0  0  0  0
 20 46  1  0  0  0  0
 22 24  2  0  0  0  0
 22 47  1  0  0  0  0
 23 24  1  0  0  0  0
 23 26  1  0  0  0  0
 24 48  1  0  0  0  0
 25 49  1  0  0  0  0
 25 50  1  0  0  0  0
 25 51  1  0  0  0  0
 26 28  2  0  0  0  0
 27 52  1  0  0  0  0
 27 53  1  0  0  0  0
 27 54  1  0  0  0  0
 28 55  1  0  0  0  0
 29 56  1  0  0  0  0
M  END
> <PUBCHEM_COMPOUND_CID>
118736856

> <PUBCHEM_CONFORMER_RMSD>
1

> <PUBCHEM_CONFORMER_DIVERSEORDER>
1
21
9
18
33
31
28
24
25
30
15
12
6
8
13
38
16
36
14
17
7
22
5
37
20
39
26
27
4
40
19
3
34
11
10
35
2
32
29
23

> <PUBCHEM_MMFF94_PARTIAL_CHARGES>
32
1 -0.08
11 0.28
14 0.07
15 0.28
16 0.03
17 -0.14
18 0.12
19 0.28
2 -0.56
20 -0.15
21 0.62
22 -0.15
23 0.05
24 -0.15
25 0.3
26 -0.01
27 0.28
28 0.08
29 0.23
3 -0.56
4 -0.57
40 0.4
43 0.15
46 0.15
47 0.15
48 0.15
5 -0.87
55 0.15
56 0.15
6 -0.48
7 -0.57
8 0.37

> <PUBCHEM_EFFECTIVE_ROTOR_COUNT>
8.2

> <PUBCHEM_PHARMACOPHORE_FEATURES>
10
1 2 acceptor
1 3 acceptor
1 4 acceptor
1 5 cation
1 5 donor
1 7 acceptor
5 1 7 26 28 29 rings
6 16 18 20 22 23 24 rings
6 6 14 16 17 18 21 rings
6 8 9 10 11 12 13 rings

> <PUBCHEM_HEAVY_ATOM_COUNT>
29

> <PUBCHEM_ATOM_DEF_STEREO_COUNT>
0

> <PUBCHEM_ATOM_UDEF_STEREO_COUNT>
0

> <PUBCHEM_BOND_DEF_STEREO_COUNT>
0

> <PUBCHEM_BOND_UDEF_STEREO_COUNT>
0

> <PUBCHEM_ISOTOPIC_ATOM_COUNT>
0

> <PUBCHEM_COMPONENT_COUNT>
1

> <PUBCHEM_CACTVS_TAUTO_COUNT>
3

> <PUBCHEM_CONFORMER_ID>
0713C7D800000001

> <PUBCHEM_MMFF94_ENERGY>
80.1965

> <PUBCHEM_FEATURE_SELFOVERLAP>
50.775

> <PUBCHEM_SHAPE_FINGERPRINT>
10165383 225 18334298691334590476
10391435 84 17967814986329062219
10411042 1 17834111945255709474
10595046 47 18270683061348378305
10673678 19 18409452509124525917
10693767 8 17770791104813586414
10937287 8 18339083808703558818
11135609 127 18338505357849624389
11135609 187 18339076098662574545
11181472 205 17914901938340937193
12144603 126 18059862745473927625
12236239 1 17986950748600305075
12730499 353 18408605829494858011
12788726 201 17274256124933397067
13140716 1 18335986450246839218
13533116 47 18271520884839669795
1361 2 18408885152629799181
13617811 41 18342170098439980841
13878862 14 18261940891535148332
14117953 113 18409731768906096412
14142895 15 18337390539416938685
14565420 104 18187077360411946962
14790565 3 18412269436777882568
14848178 96 18412547639369224384
15152005 290 18265051513146744796
15198563 99 17405709663210927094
15685185 35 18194964269024823613
15890870 6 18338517547262527488
16120349 189 18189341341380975388
18335252 98 18408606964273358171
18365409 1 18196090169421744591
19319366 153 18271799107909199262
19427546 62 18408885144261456114
20157964 124 18410012121925222848
20554085 129 18130492129135216840
21033648 29 17240480295062781100
21049683 118 18190443017566267666
21049683 271 18343018931050744641
21521721 280 18411422817540903593
23522609 53 17703244918879926281
23729417 116 17188137791116040854
23845131 108 18334579083378486994
283562 15 17832986427595382898
335352 9 18411427173065451334
34797466 226 18131637764095024301
3534868 343 17772753779595283319
4073 2 18334015017308334707
437795 163 18341327907878681799
44555599 121 18056766421302992601
45270241 37 18338237060290981365
45377200 153 16128087984333020471
474 4 18411703158340494146
4760202 70 18270954752964277327
5109719 28 18334862731803717737
5470011 282 18409722938605699797
6327066 14 18263928907490296212
6371009 1 18340763759370688336
9849439 229 18336264652041465900

> <PUBCHEM_SHAPE_MULTIPOLES>
568.1
20.75
5.08
1
49.2
3.63
0
-18.12
-4.67
-11
-0.06
0.1
-0.62
-0.15

> <PUBCHEM_SHAPE_SELFOVERLAP>
1198.76

> <PUBCHEM_SHAPE_VOLUME>
322.2

> <PUBCHEM_COORDINATE_TYPE>
2
5
10

$$$$
