155598690
  -OEChem-04132513243D

 52 55  0     0  0  0  0  0  0999 V2000
   -5.7639   -0.6522    0.3025 O   0  0  0  0  0  0  0  0  0  0  0  0
    0.2238    2.4103    0.3119 O   0  0  0  0  0  0  0  0  0  0  0  0
   -8.2194    0.5360   -0.3315 O   0  0  0  0  0  0  0  0  0  0  0  0
   -0.1963    0.1308    0.3886 N   0  0  0  0  0  0  0  0  0  0  0  0
    2.4718   -0.3112    0.0766 N   0  0  0  0  0  0  0  0  0  0  0  0
    2.9516    3.3375    0.0103 N   0  0  0  0  0  0  0  0  0  0  0  0
    4.7993    0.3456   -0.1989 N   0  0  0  0  0  0  0  0  0  0  0  0
    4.1678   -1.8838   -0.1171 N   0  0  0  0  0  0  0  0  0  0  0  0
    5.4685   -3.6779   -0.2619 N   0  0  0  0  0  0  0  0  0  0  0  0
   -1.6288    0.2284    0.5314 C   0  0  0  0  0  0  0  0  0  0  0  0
   -4.3618   -0.8105    0.1145 C   0  0  0  0  0  0  0  0  0  0  0  0
   -2.3006    0.2951   -0.8426 C   0  0  0  0  0  0  0  0  0  0  0  0
   -2.1700   -0.9370    1.3648 C   0  0  0  0  0  0  0  0  0  0  0  0
   -3.8208    0.3515   -0.7167 C   0  0  0  0  0  0  0  0  0  0  0  0
   -3.6903   -0.8758    1.4842 C   0  0  0  0  0  0  0  0  0  0  0  0
   -6.4901   -1.0342   -0.8568 C   0  0  0  0  0  0  0  0  0  0  0  0
    0.6192    1.2477    0.2895 C   0  0  0  0  0  0  0  0  0  0  0  0
    2.0701    0.9777    0.1205 C   0  0  0  0  0  0  0  0  0  0  0  0
   -7.9718   -0.8387   -0.5997 C   0  0  0  0  0  0  0  0  0  0  0  0
    3.0293    1.9684    0.0051 C   0  0  0  0  0  0  0  0  0  0  0  0
    4.3703    1.6309   -0.1519 C   0  0  0  0  0  0  0  0  0  0  0  0
    3.7941   -0.5453   -0.0784 C   0  0  0  0  0  0  0  0  0  0  0  0
    5.1075    2.8365   -0.2420 C   0  0  0  0  0  0  0  0  0  0  0  0
    4.2060    3.8737   -0.1385 C   0  0  0  0  0  0  0  0  0  0  0  0
   -9.5961    0.7771   -0.0768 C   0  0  0  0  0  0  0  0  0  0  0  0
    3.3326   -2.9604   -0.0158 C   0  0  0  0  0  0  0  0  0  0  0  0
    5.4395   -2.3638   -0.2635 C   0  0  0  0  0  0  0  0  0  0  0  0
    4.1582   -4.0563   -0.1079 C   0  0  0  0  0  0  0  0  0  0  0  0
   -1.8489    1.1622    1.0657 H   0  0  0  0  0  0  0  0  0  0  0  0
   -4.1622   -1.7592   -0.4027 H   0  0  0  0  0  0  0  0  0  0  0  0
   -2.0159   -0.5805   -1.4408 H   0  0  0  0  0  0  0  0  0  0  0  0
   -1.9480    1.1749   -1.3946 H   0  0  0  0  0  0  0  0  0  0  0  0
   -1.7219   -0.9225    2.3658 H   0  0  0  0  0  0  0  0  0  0  0  0
   -1.8790   -1.8922    0.9082 H   0  0  0  0  0  0  0  0  0  0  0  0
   -4.1236    1.3038   -0.2622 H   0  0  0  0  0  0  0  0  0  0  0  0
   -4.2495    0.3542   -1.7239 H   0  0  0  0  0  0  0  0  0  0  0  0
   -3.9825   -0.0028    2.0823 H   0  0  0  0  0  0  0  0  0  0  0  0
   -4.0589   -1.7490    2.0361 H   0  0  0  0  0  0  0  0  0  0  0  0
    0.2198   -0.7928    0.3052 H   0  0  0  0  0  0  0  0  0  0  0  0
   -6.2956   -2.0868   -1.0909 H   0  0  0  0  0  0  0  0  0  0  0  0
   -6.2022   -0.4142   -1.7105 H   0  0  0  0  0  0  0  0  0  0  0  0
   -8.5485   -1.1568   -1.4752 H   0  0  0  0  0  0  0  0  0  0  0  0
   -8.2779   -1.4303    0.2710 H   0  0  0  0  0  0  0  0  0  0  0  0
    2.1005    3.8737    0.1089 H   0  0  0  0  0  0  0  0  0  0  0  0
    6.1760    2.9418   -0.3681 H   0  0  0  0  0  0  0  0  0  0  0  0
    4.3445    4.9455   -0.1576 H   0  0  0  0  0  0  0  0  0  0  0  0
   -9.7280    1.8444    0.1201 H   0  0  0  0  0  0  0  0  0  0  0  0
  -10.2009    0.5055   -0.9474 H   0  0  0  0  0  0  0  0  0  0  0  0
   -9.9278    0.2167    0.8027 H   0  0  0  0  0  0  0  0  0  0  0  0
    2.2610   -2.8802    0.1088 H   0  0  0  0  0  0  0  0  0  0  0  0
    6.3110   -1.7302   -0.3673 H   0  0  0  0  0  0  0  0  0  0  0  0
    3.8757   -5.0982   -0.0711 H   0  0  0  0  0  0  0  0  0  0  0  0
  1 11  1  0  0  0  0
  1 16  1  0  0  0  0
  2 17  2  0  0  0  0
  3 19  1  0  0  0  0
  3 25  1  0  0  0  0
  4 10  1  0  0  0  0
  4 17  1  0  0  0  0
  4 39  1  0  0  0  0
  5 18  2  0  0  0  0
  5 22  1  0  0  0  0
  6 20  1  0  0  0  0
  6 24  1  0  0  0  0
  6 44  1  0  0  0  0
  7 21  1  0  0  0  0
  7 22  2  0  0  0  0
  8 22  1  0  0  0  0
  8 26  1  0  0  0  0
  8 27  1  0  0  0  0
  9 27  2  0  0  0  0
  9 28  1  0  0  0  0
 10 12  1  0  0  0  0
 10 13  1  0  0  0  0
 10 29  1  0  0  0  0
 11 14  1  0  0  0  0
 11 15  1  0  0  0  0
 11 30  1  0  0  0  0
 12 14  1  0  0  0  0
 12 31  1  0  0  0  0
 12 32  1  0  0  0  0
 13 15  1  0  0  0  0
 13 33  1  0  0  0  0
 13 34  1  0  0  0  0
 14 35  1  0  0  0  0
 14 36  1  0  0  0  0
 15 37  1  0  0  0  0
 15 38  1  0  0  0  0
 16 19  1  0  0  0  0
 16 40  1  0  0  0  0
 16 41  1  0  0  0  0
 17 18  1  0  0  0  0
 18 20  1  0  0  0  0
 19 42  1  0  0  0  0
 19 43  1  0  0  0  0
 20 21  2  0  0  0  0
 21 23  1  0  0  0  0
 23 24  2  0  0  0  0
 23 45  1  0  0  0  0
 24 46  1  0  0  0  0
 25 47  1  0  0  0  0
 25 48  1  0  0  0  0
 25 49  1  0  0  0  0
 26 28  2  0  0  0  0
 26 50  1  0  0  0  0
 27 51  1  0  0  0  0
 28 52  1  0  0  0  0
M  END
> <PUBCHEM_COMPOUND_CID>
155598690

> <PUBCHEM_CONFORMER_RMSD>
1

> <PUBCHEM_CONFORMER_DIVERSEORDER>
1
63
30
12
37
33
19
32
41
11
24
40
45
64
7
17
18
23
36
13
9
53
58
59
39
29
27
55
26
65
52
22
28
54
61
47
4
44
62
35
6
25
21
31
51
56
20
8
42
2
14
43
57
48
38
60
46
50
3
49
10
34
15
5
16

> <PUBCHEM_MMFF94_PARTIAL_CHARGES>
31
1 -0.56
10 0.3
11 0.28
16 0.28
17 0.54
18 0.4
19 0.28
2 -0.57
20 -0.15
21 0.26
22 0.6
23 -0.15
24 -0.3
25 0.28
26 -0.3
27 0.04
28 0.08
3 -0.56
39 0.37
4 -0.73
44 0.27
45 0.15
46 0.15
5 -0.62
50 0.15
51 0.15
52 0.15
6 0.03
7 -0.57
8 0.33
9 -0.57

> <PUBCHEM_EFFECTIVE_ROTOR_COUNT>
9.2

> <PUBCHEM_PHARMACOPHORE_FEATURES>
12
1 1 acceptor
1 2 acceptor
1 3 acceptor
1 4 donor
1 5 acceptor
1 6 cation
1 6 donor
4 5 7 8 22 cation
5 6 20 21 23 24 rings
5 8 9 26 27 28 rings
6 10 11 12 13 14 15 rings
6 5 7 18 20 21 22 rings

> <PUBCHEM_HEAVY_ATOM_COUNT>
28

> <PUBCHEM_ATOM_DEF_STEREO_COUNT>
0

> <PUBCHEM_ATOM_UDEF_STEREO_COUNT>
0

> <PUBCHEM_BOND_DEF_STEREO_COUNT>
0

> <PUBCHEM_BOND_UDEF_STEREO_COUNT>
0

> <PUBCHEM_ISOTOPIC_ATOM_COUNT>
0

> <PUBCHEM_COMPONENT_COUNT>
1

> <PUBCHEM_CACTVS_TAUTO_COUNT>
-1

> <PUBCHEM_CONFORMER_ID>
09463F6200000001

> <PUBCHEM_MMFF94_ENERGY>
48.573

> <PUBCHEM_FEATURE_SELFOVERLAP>
61.016

> <PUBCHEM_SHAPE_FINGERPRINT>
10411042 1 18194682563042616014
10580692 12 18411136910274325321
10595046 47 18343021133835483057
10835480 77 18335138756450748065
11135609 127 18197772404526444000
11135609 187 18268709600694569857
11181472 205 18129957693612461545
11607047 191 17271706572497492992
117089 54 17912093750572248814
11719270 70 18338513153731867520
12082328 90 18412259572292772415
12107183 9 18054803775334254233
12144600 37 18335143125065984747
12730499 353 18264497346263689464
13383665 225 17822025197850083524
13533116 47 18342738533081254521
13540713 5 18129117649106061640
1361 2 18411981347441149586
1361 4 18269270339368269831
13617811 41 15791730781036333735
13773456 30 18336827619090763490
13782708 43 18186800262629604131
14400156 413 18339350950979861813
14675020 138 18128521851569529024
15082195 135 17895487998108271172
15183329 4 17775573057276291569
15276724 80 18411699890308998309
15328684 2 17346333566079095051
15475509 8 17603588491978133389
15840311 113 18261112977049931453
17492 89 18339923706379412648
17844677 252 18411706456527399557
19315958 150 18334861662472639005
19319366 153 18128536166600586756
19427546 62 18120374517504525276
20028762 73 18130788906590740814
20157964 124 18410575127665622873
20511986 3 17702939369656355276
20645477 70 18335417980795763994
20771845 171 18040722477116709444
21033650 10 16226048821520782132
21130935 74 18411702123775946419
21133410 58 18410006611889396991
21279426 13 18188199898039982757
21344244 78 18130213883952787784
21781055 127 14996554037005001905
221357 26 18334012757200397303
221490 88 18335990770793657880
23081809 10 17918280861714817651
23522609 53 17845116085217113065
23559900 14 18336542729751806024
23569914 152 17543315317411610455
23569943 247 18263079908546874515
23845131 108 18051128396378950480
239999 70 17894911880043186344
249057 25 17918002642270778121
25269216 80 15286225972339111027
255183 451 18199759046829795734
3004659 81 18187645773790712794
3014965 18 18412261736180588847
3421961 26 18411421683711761186
34797466 226 17022906769763578511
3633792 109 18411703188368303193
3882209 13 17250867179895915874
4073 2 18189055468267803483
4093350 32 18409725205325220913
4098825 35 18410289195420369757
4403749 210 17689153835419372696
44317340 157 18412254056753235821
44555599 121 18272661117342900321
4561138 5 17988644120882362881
46194498 28 17749391490025876156
5309563 4 18195248819857195646
57359948 33 17749108902478712148
6025842 7 18411139177779414572
6695519 79 17693397928394430216
6698420 124 18261683598009791403
70251023 43 18337389327776958936
9777508 108 17189254328452613616
9962374 69 18412252952371867886

> <PUBCHEM_SHAPE_MULTIPOLES>
528.73
21.74
4.26
0.88
55.19
1
0.16
3.19
-4.1
-12.75
-0.32
0.91
0.16
0.32

> <PUBCHEM_SHAPE_SELFOVERLAP>
1136.113

> <PUBCHEM_SHAPE_VOLUME>
289.8

> <PUBCHEM_COORDINATE_TYPE>
2
5
10

$$$$
