168679856
  -OEChem-04132513263D

 43 45  0     0  0  0  0  0  0999 V2000
    5.7835   -2.4321   -1.1929 F   0  0  0  0  0  0  0  0  0  0  0  0
    5.8243   -2.4326    0.9814 F   0  0  0  0  0  0  0  0  0  0  0  0
    4.4744   -3.7609   -0.0863 F   0  0  0  0  0  0  0  0  0  0  0  0
   -6.0188    0.3706    0.2946 O   0  0  0  0  0  0  0  0  0  0  0  0
   -8.5909    0.1004   -0.7800 O   0  0  0  0  0  0  0  0  0  0  0  0
   -0.1278   -2.1700    0.0588 O   0  0  0  0  0  0  0  0  0  0  0  0
    3.8078    2.1059   -0.0289 N   0  0  0  0  0  0  0  0  0  0  0  0
    2.0684    0.5612    0.0035 N   0  0  0  0  0  0  0  0  0  0  0  0
    4.3696   -0.1515   -0.0579 N   0  0  0  0  0  0  0  0  0  0  0  0
   -0.5780    0.1390    0.0651 N   0  0  0  0  0  0  0  0  0  0  0  0
    5.1636    3.8646   -0.0510 N   0  0  0  0  0  0  0  0  0  0  0  0
   -4.0962   -0.9174    0.2189 N   0  0  0  0  0  0  0  0  0  0  0  0
   -3.9945    1.4903    0.2019 N   0  0  0  0  0  0  0  0  0  0  0  0
    1.7046   -0.7378    0.0031 C   0  0  0  0  0  0  0  0  0  0  0  0
    3.3969    0.7794   -0.0274 C   0  0  0  0  0  0  0  0  0  0  0  0
    3.9353   -1.4288   -0.0565 C   0  0  0  0  0  0  0  0  0  0  0  0
    2.6024   -1.7853   -0.0265 C   0  0  0  0  0  0  0  0  0  0  0  0
    0.2420   -1.0009    0.0369 C   0  0  0  0  0  0  0  0  0  0  0  0
   -1.9655    0.1979    0.1231 C   0  0  0  0  0  0  0  0  0  0  0  0
    4.9808   -2.4929   -0.0896 C   0  0  0  0  0  0  0  0  0  0  0  0
    2.9959    3.2047   -0.0022 C   0  0  0  0  0  0  0  0  0  0  0  0
    5.1000    2.5516   -0.0577 C   0  0  0  0  0  0  0  0  0  0  0  0
   -6.7063   -0.8717    0.3313 C   0  0  0  0  0  0  0  0  0  0  0  0
   -8.1989   -0.6103    0.3882 C   0  0  0  0  0  0  0  0  0  0  0  0
    3.8553    4.2779   -0.0163 C   0  0  0  0  0  0  0  0  0  0  0  0
   -2.7484   -0.9378    0.1621 C   0  0  0  0  0  0  0  0  0  0  0  0
   -2.6498    1.3961    0.1457 C   0  0  0  0  0  0  0  0  0  0  0  0
   -4.6457    0.3120    0.2357 C   0  0  0  0  0  0  0  0  0  0  0  0
   -9.9841    0.3784   -0.7774 C   0  0  0  0  0  0  0  0  0  0  0  0
    2.2870   -2.8212   -0.0265 H   0  0  0  0  0  0  0  0  0  0  0  0
   -0.1055    1.0405    0.0445 H   0  0  0  0  0  0  0  0  0  0  0  0
    1.9156    3.1520    0.0238 H   0  0  0  0  0  0  0  0  0  0  0  0
    5.9593    1.8940   -0.0829 H   0  0  0  0  0  0  0  0  0  0  0  0
   -6.4086   -1.4462    1.2166 H   0  0  0  0  0  0  0  0  0  0  0  0
   -6.4784   -1.4415   -0.5782 H   0  0  0  0  0  0  0  0  0  0  0  0
   -8.7426   -1.5597    0.4454 H   0  0  0  0  0  0  0  0  0  0  0  0
   -8.4357   -0.0023    1.2691 H   0  0  0  0  0  0  0  0  0  0  0  0
   -2.3575   -1.9455    0.1509 H   0  0  0  0  0  0  0  0  0  0  0  0
   -2.1289    2.3482    0.1188 H   0  0  0  0  0  0  0  0  0  0  0  0
    3.5986    5.3271   -0.0034 H   0  0  0  0  0  0  0  0  0  0  0  0
  -10.2285    0.9212   -1.6944 H   0  0  0  0  0  0  0  0  0  0  0  0
  -10.5610   -0.5513   -0.7580 H   0  0  0  0  0  0  0  0  0  0  0  0
  -10.2491    1.0048    0.0798 H   0  0  0  0  0  0  0  0  0  0  0  0
  1 20  1  0  0  0  0
  2 20  1  0  0  0  0
  3 20  1  0  0  0  0
  4 23  1  0  0  0  0
  4 28  1  0  0  0  0
  5 24  1  0  0  0  0
  5 29  1  0  0  0  0
  6 18  2  0  0  0  0
  7 15  1  0  0  0  0
  7 21  1  0  0  0  0
  7 22  1  0  0  0  0
  8 14  1  0  0  0  0
  8 15  2  0  0  0  0
  9 15  1  0  0  0  0
  9 16  2  0  0  0  0
 10 18  1  0  0  0  0
 10 19  1  0  0  0  0
 10 31  1  0  0  0  0
 11 22  2  0  0  0  0
 11 25  1  0  0  0  0
 12 26  2  0  0  0  0
 12 28  1  0  0  0  0
 13 27  1  0  0  0  0
 13 28  2  0  0  0  0
 14 17  2  0  0  0  0
 14 18  1  0  0  0  0
 16 17  1  0  0  0  0
 16 20  1  0  0  0  0
 17 30  1  0  0  0  0
 19 26  1  0  0  0  0
 19 27  2  0  0  0  0
 21 25  2  0  0  0  0
 21 32  1  0  0  0  0
 22 33  1  0  0  0  0
 23 24  1  0  0  0  0
 23 34  1  0  0  0  0
 23 35  1  0  0  0  0
 24 36  1  0  0  0  0
 24 37  1  0  0  0  0
 25 40  1  0  0  0  0
 26 38  1  0  0  0  0
 27 39  1  0  0  0  0
 29 41  1  0  0  0  0
 29 42  1  0  0  0  0
 29 43  1  0  0  0  0
M  END
> <PUBCHEM_COMPOUND_CID>
168679856

> <PUBCHEM_CONFORMER_RMSD>
1

> <PUBCHEM_CONFORMER_DIVERSEORDER>
1
25
17
12
6
5
11
19
21
7
26
13
9
23
2
14
16
15
3
8
18
10
4
28
20
22
24
27

> <PUBCHEM_MMFF94_PARTIAL_CHARGES>
36
1 -0.34
10 -0.55
11 -0.57
12 -0.62
13 -0.62
14 0.4
15 0.6
16 0.17
17 -0.15
18 0.54
19 0.12
2 -0.34
20 1.16
21 -0.3
22 0.04
23 0.28
24 0.28
25 0.08
26 0.16
27 0.16
28 0.7
29 0.28
3 -0.34
30 0.15
31 0.37
32 0.15
33 0.15
38 0.15
39 0.15
4 -0.36
40 0.15
5 -0.56
6 -0.57
7 0.33
8 -0.62
9 -0.62

> <PUBCHEM_EFFECTIVE_ROTOR_COUNT>
9

> <PUBCHEM_PHARMACOPHORE_FEATURES>
10
1 10 donor
1 12 acceptor
1 5 acceptor
1 6 acceptor
1 9 acceptor
3 12 13 28 cation
4 7 8 9 15 cation
5 7 11 21 22 25 rings
6 12 13 19 26 27 28 rings
6 8 9 14 15 16 17 rings

> <PUBCHEM_HEAVY_ATOM_COUNT>
29

> <PUBCHEM_ATOM_DEF_STEREO_COUNT>
0

> <PUBCHEM_ATOM_UDEF_STEREO_COUNT>
0

> <PUBCHEM_BOND_DEF_STEREO_COUNT>
0

> <PUBCHEM_BOND_UDEF_STEREO_COUNT>
0

> <PUBCHEM_ISOTOPIC_ATOM_COUNT>
0

> <PUBCHEM_COMPONENT_COUNT>
1

> <PUBCHEM_CACTVS_TAUTO_COUNT>
-1

> <PUBCHEM_CONFORMER_ID>
0A0DD9B000000001

> <PUBCHEM_MMFF94_ENERGY>
66.6276

> <PUBCHEM_FEATURE_SELFOVERLAP>
50.747

> <PUBCHEM_SHAPE_FINGERPRINT>
10050765 1 18338800146961396643
10162869 55 18271795844134903183
10165383 225 18189058745829315908
10411042 1 18194684757850005998
10595046 47 18270682081868591433
10835480 77 18335701689524928561
11607047 191 17415259901699824192
11607047 74 17560510811765598096
12107183 9 18053956051658482576
12166972 35 18201440225350597490
12616971 3 17989200439194684191
13533116 47 18409171016909637820
13560911 43 18335983078159182184
13782708 43 18041283166731026899
13878862 14 18336811070054108461
14114211 68 18192167086327942492
14170010 4 18412544306590257434
14400156 413 18410002265482726925
14429380 56 18410002244291512469
150020 25 18113892742356668605
15131766 46 18125995212166436701
15276724 80 18411979170641609101
15328684 2 17346053190634383737
15419008 91 17749377201429525941
15439362 3 18123477335709256252
15475509 35 16660627533014525546
15840311 113 18335421279757928685
15890870 6 18194405726509902380
15927050 60 18196656422737798390
17844677 252 18340213998602202817
18681886 176 18341609266353133850
19301679 30 17904755584715560922
19315958 150 18335424616752682493
19427546 62 18337674238770217298
20028762 73 18272370823959995855
20157964 124 18411138064781693064
20771845 140 16343416216076858047
20771845 65 17845936226702359306
21033648 29 17168134646500759877
21049683 271 18261403222302173508
21057603 323 17691971879779420574
21130935 74 18409455812856664851
21133410 127 17968936538764729412
21267235 1 18340211795526917219
21315759 40 17489868216162517899
21315763 129 18339362950974977001
21315763 28 18412262805912249643
21315764 268 18335419049963390253
21344244 78 18200865194065869840
21781055 127 16414657989381839147
21792934 111 18271515421868246457
21859007 373 17459731671211436373
221357 26 18335986376535640436
22311459 1 18338237059532196067
23081809 10 17775569741381944161
23559900 14 18411419510284632442
23845131 108 18191024715115492154
24771750 20 18263095452285888380
249057 25 17917721167151538657
249057 3 18413670201495952678
255183 451 18200886054743092782
3103668 31 17686627840572137404
335352 9 18410860932660899910
3411729 13 18335701702557556008
34797466 226 18060149755771913205
397830 11 18042133222964424155
4073 2 18115312318161245379
4144715 1 18260276260989918777
44317340 157 18341323470665417733
44555599 121 18200884981112454409
4516262 110 18339922739864695548
4625314 4 18410853249380690407
5104073 3 18335430083713119347
5385378 56 18339921623800725072
58083652 198 18411704275580767273
5912855 24 18128250297455971783
6004065 56 18336264549289785978
6086070 43 18044082463068463769
67856867 119 18341609339393360272
68570916 9 18271525390524178831
9962374 69 18412255138499639614
9981440 41 17977944915308786112

> <PUBCHEM_SHAPE_MULTIPOLES>
522.51
23.11
4.12
0.7
59.39
2.26
0.04
0.57
2.89
-12.78
0.11
0.17
-0.13
0.42

> <PUBCHEM_SHAPE_SELFOVERLAP>
1126.062

> <PUBCHEM_SHAPE_VOLUME>
287.3

> <PUBCHEM_COORDINATE_TYPE>
2
5
10

$$$$
